<?xml version="1.0" encoding="UTF-8"?>

<!-- generated on 2026-07-10 18:16:27 by Eclipse SUMO netconvert Version 1.20.0
<configuration xmlns:xsi="http://www.w3.org/2001/XMLSchema-instance" xsi:noNamespaceSchemaLocation="http://sumo.dlr.de/xsd/netconvertConfiguration.xsd">

    <input>
        <node-files value="scenarios/_bench/emergency-corridor-demo/nodes.nod.xml"/>
        <edge-files value="scenarios/_bench/emergency-corridor-demo/edges.edg.xml"/>
    </input>

    <output>
        <output-file value="scenarios/_bench/emergency-corridor-demo/net.net.xml"/>
    </output>

    <junctions>
        <no-turnarounds value="true"/>
    </junctions>

</configuration>
-->

<net version="1.20" junctionCornerDetail="5" limitTurnSpeed="5.50" xmlns:xsi="http://www.w3.org/2001/XMLSchema-instance" xsi:noNamespaceSchemaLocation="http://sumo.dlr.de/xsd/net_file.xsd">

    <location netOffset="0.00,0.00" convBoundary="0.00,0.00,0.00,480.00" origBoundary="0.00,0.00,0.00,480.00" projParameter="!"/>

    <edge id="e0" from="A" to="B" priority="-1">
        <lane id="e0_0" index="0" speed="13.89" length="480.00" shape="4.80,0.00 4.80,480.00"/>
        <lane id="e0_1" index="1" speed="13.89" length="480.00" shape="1.60,0.00 1.60,480.00"/>
    </edge>

    <junction id="A" type="dead_end" x="0.00" y="0.00" incLanes="" intLanes="" shape="0.00,0.00 6.40,0.00"/>
    <junction id="B" type="dead_end" x="0.00" y="480.00" incLanes="e0_0 e0_1" intLanes="" shape="6.40,480.00 0.00,480.00"/>

</net>
