<nodes>
    <node id="c"  x="0"    y="0"    type="traffic_light"/>
    <node id="n"  x="0"    y="120"  type="priority"/>
    <node id="s"  x="0"    y="-120" type="priority"/>
    <node id="e"  x="120"  y="0"    type="priority"/>
    <node id="w"  x="-120" y="0"    type="priority"/>
</nodes>
