<additional>
    <timedEvent type="SaveTLSStates" source="J" dest="tls-states.xml"/>
    <timedEvent type="SaveTLSSwitchTimes" source="J" dest="tls-switch.xml"/>
</additional>
