<?xml version="1.0" encoding="UTF-8"?>
<edges xmlns:xsi="http://www.w3.org/2001/XMLSchema-instance" xsi:noNamespaceSchemaLocation="http://sumo.dlr.de/xsd/edges_file.xsd">
    <edge id="WJ" from="W" to="J" numLanes="1" speed="13.89"/>
    <edge id="JE" from="J" to="E" numLanes="1" speed="13.89"/>
    <edge id="SJ" from="S" to="J" numLanes="1" speed="13.89"/>
    <edge id="JN" from="J" to="N" numLanes="1" speed="13.89"/>
</edges>
