<?xml version="1.0" encoding="UTF-8"?>
<nodes xmlns:xsi="http://www.w3.org/2001/XMLSchema-instance" xsi:noNamespaceSchemaLocation="http://sumo.dlr.de/xsd/nodes_file.xsd">
    <node id="J" x="0.0"    y="0.0"    type="traffic_light"/>
    <node id="W" x="-150.0" y="0.0"    type="dead_end"/>
    <node id="E" x="150.0"  y="0.0"    type="dead_end"/>
    <node id="N" x="0.0"    y="150.0"  type="dead_end"/>
    <node id="S" x="0.0"    y="-150.0" type="dead_end"/>
</nodes>
