<edges>
  <edge id="e0" from="a" to="b" numLanes="1" speed="13.89" width="6.0"/>
</edges>
