<nodes>
  <node id="a" x="0" y="0"/>
  <node id="b" x="600" y="0"/>
</nodes>
