<?xml version="1.0" encoding="UTF-8"?>

<!-- generated on 2026-07-10 02:15:28 by Eclipse SUMO netconvert Version 1.20.0
<configuration xmlns:xsi="http://www.w3.org/2001/XMLSchema-instance" xsi:noNamespaceSchemaLocation="http://sumo.dlr.de/xsd/netconvertConfiguration.xsd">

    <input>
        <node-files value="nodes.nod.xml"/>
        <edge-files value="edges.edg.xml"/>
    </input>

    <output>
        <output-file value="net.net.xml"/>
    </output>

    <junctions>
        <no-turnarounds value="true"/>
        <junctions.corner-detail value="0"/>
    </junctions>

</configuration>
-->

<net version="1.20" limitTurnSpeed="5.50" xmlns:xsi="http://www.w3.org/2001/XMLSchema-instance" xsi:noNamespaceSchemaLocation="http://sumo.dlr.de/xsd/net_file.xsd">

    <location netOffset="0.00,100.00" convBoundary="0.00,0.00,3000.00,200.00" origBoundary="0.00,-100.00,3000.00,100.00" projParameter="!"/>

    <edge id=":A_0" function="internal">
        <lane id=":A_0_0" index="0" allow="rail" speed="27.78" length="3.00" shape="1001.38,100.00 1000.48,100.00 999.88,99.97 999.27,99.93 998.38,99.84"/>
    </edge>
    <edge id=":A_1" function="internal">
        <lane id=":A_1_0" index="0" allow="rail" speed="27.78" length="3.00" shape="998.38,100.00 1001.38,100.00"/>
    </edge>
    <edge id=":B_0" function="internal">
        <lane id=":B_0_0" index="0" allow="rail" speed="27.78" length="3.00" shape="2001.62,100.00 1998.62,100.00"/>
    </edge>
    <edge id=":B_1" function="internal">
        <lane id=":B_1_0" index="0" allow="rail" speed="27.78" length="3.00" shape="1998.62,100.00 1999.52,100.00 2000.12,100.03 2000.73,100.07 2001.62,100.16"/>
    </edge>

    <edge id="AB" from="A" to="B" priority="-1" spreadType="center" bidi="BA">
        <lane id="AB_0" index="0" allow="rail" speed="27.78" length="997.25" shape="1001.38,100.00 1998.62,100.00"/>
    </edge>
    <edge id="ALex" from="A" to="Lex" priority="-1" spreadType="center">
        <lane id="ALex_0" index="0" allow="rail" speed="27.78" length="1003.36" shape="998.38,99.84 0.00,0.00"/>
    </edge>
    <edge id="BA" from="B" to="A" priority="-1" spreadType="center" bidi="AB">
        <lane id="BA_0" index="0" allow="rail" speed="27.78" length="997.25" shape="1998.62,100.00 1001.38,100.00"/>
    </edge>
    <edge id="BRex" from="B" to="Rex" priority="-1" spreadType="center">
        <lane id="BRex_0" index="0" allow="rail" speed="27.78" length="1003.36" shape="2001.62,100.16 3000.00,200.00"/>
    </edge>
    <edge id="LA" from="L" to="A" priority="-1" spreadType="center">
        <lane id="LA_0" index="0" allow="rail" speed="27.78" length="998.38" shape="0.00,100.00 998.38,100.00"/>
    </edge>
    <edge id="RB" from="R" to="B" priority="-1" spreadType="center">
        <lane id="RB_0" index="0" allow="rail" speed="27.78" length="998.38" shape="3000.00,100.00 2001.62,100.00"/>
    </edge>

    <junction id="A" type="rail_signal" x="1000.00" y="100.00" incLanes="BA_0 LA_0" intLanes=":A_0_0 :A_1_0" shape="1001.38,101.60 1001.38,98.40 998.38,98.23 998.38,101.60">
        <request index="0" response="10" foes="10" cont="0"/>
        <request index="1" response="00" foes="01" cont="0"/>
    </junction>
    <junction id="B" type="rail_signal" x="2000.00" y="100.00" incLanes="RB_0 AB_0" intLanes=":B_0_0 :B_1_0" shape="2001.62,101.77 2001.62,98.40 1998.62,98.40 1998.62,101.60">
        <request index="0" response="00" foes="10" cont="0"/>
        <request index="1" response="01" foes="01" cont="0"/>
    </junction>
    <junction id="L" type="dead_end" x="0.00" y="100.00" incLanes="" intLanes="" shape="0.00,101.60 0.00,98.40"/>
    <junction id="Lex" type="dead_end" x="0.00" y="0.00" incLanes="ALex_0" intLanes="" shape="-0.16,1.59 0.16,-1.59"/>
    <junction id="R" type="dead_end" x="3000.00" y="100.00" incLanes="" intLanes="" shape="3000.00,98.40 3000.00,101.60"/>
    <junction id="Rex" type="dead_end" x="3000.00" y="200.00" incLanes="BRex_0" intLanes="" shape="3000.16,198.41 2999.84,201.59"/>

    <connection from="AB" to="BRex" fromLane="0" toLane="0" via=":B_1_0" tl="B" linkIndex="1" dir="s" state="o"/>
    <connection from="BA" to="ALex" fromLane="0" toLane="0" via=":A_0_0" tl="A" linkIndex="0" dir="s" state="o"/>
    <connection from="LA" to="AB" fromLane="0" toLane="0" via=":A_1_0" tl="A" linkIndex="1" dir="s" state="O"/>
    <connection from="RB" to="BA" fromLane="0" toLane="0" via=":B_0_0" tl="B" linkIndex="0" dir="s" state="O"/>

    <connection from=":A_0" to="ALex" fromLane="0" toLane="0" dir="s" state="M"/>
    <connection from=":A_1" to="AB" fromLane="0" toLane="0" dir="s" state="M"/>
    <connection from=":B_0" to="BA" fromLane="0" toLane="0" dir="s" state="M"/>
    <connection from=":B_1" to="BRex" fromLane="0" toLane="0" dir="s" state="M"/>

</net>
