<nodes>
    <node id="N0" x="0"    y="0"/>
    <node id="N1" x="1000" y="0"/>
    <node id="N2" x="2000" y="0"/>
</nodes>
