<?xml version="1.0" encoding="UTF-8"?>
<routes xmlns:xsi="http://www.w3.org/2001/XMLSchema-instance" xsi:noNamespaceSchemaLocation="http://sumo.dlr.de/xsd/routes_file.xsd">
    <vType id="slow" vClass="passenger" sigma="0" maxSpeed="5.00"/>
    <vType id="fast" vClass="passenger" sigma="0"/>
    <route id="r0" edges="e0"/>
    <vehicle id="lead"   type="slow" route="r0" depart="0" departPos="100" departSpeed="0" departLane="0"/>
    <vehicle id="follow" type="fast" route="r0" depart="0" departPos="0"   departSpeed="0" departLane="0"/>
</routes>
