<?xml version="1.0" encoding="UTF-8"?>
<configuration>
    <input><net-file value="net.net.xml"/><route-files value="rou.rou.xml"/></input>
    <time><begin value="0"/><end value="600"/><step-length value="1"/></time>
    <processing><default.speeddev value="0"/><time-to-teleport value="-1"/></processing>
</configuration>
