<?xml version="1.0" encoding="UTF-8"?>

<!-- generated on 2026-07-08 14:13:33 by Eclipse SUMO netconvert Version 1.20.0
<configuration xmlns:xsi="http://www.w3.org/2001/XMLSchema-instance" xsi:noNamespaceSchemaLocation="http://sumo.dlr.de/xsd/netconvertConfiguration.xsd">

    <input>
        <node-files value="nodes.nod.xml"/>
        <edge-files value="edges.edg.xml"/>
        <connection-files value="connections.con.xml"/>
    </input>

    <output>
        <output-file value="net.net.xml"/>
    </output>

    <junctions>
        <no-turnarounds value="true"/>
    </junctions>

</configuration>
-->

<net version="1.20" junctionCornerDetail="5" limitTurnSpeed="5.50" xmlns:xsi="http://www.w3.org/2001/XMLSchema-instance" xsi:noNamespaceSchemaLocation="http://sumo.dlr.de/xsd/net_file.xsd">

    <location netOffset="0.00,0.00" convBoundary="0.00,0.00,600.00,0.00" origBoundary="0.00,0.00,600.00,0.00" projParameter="!"/>

    <edge id=":N1_0" function="internal">
        <lane id=":N1_0_0" index="0" speed="13.89" length="0.10" shape="200.00,-4.80 200.00,-4.80"/>
        <lane id=":N1_0_1" index="1" speed="13.89" length="0.10" shape="200.00,-1.60 200.00,-1.60"/>
    </edge>
    <edge id=":N2_0" function="internal">
        <lane id=":N2_0_0" index="0" speed="13.89" length="1.60" shape="400.00,-1.60 400.00,-4.80"/>
        <lane id=":N2_0_1" index="1" speed="13.89" length="1.60" shape="400.00,-1.60 400.00,-1.60"/>
    </edge>

    <edge id="E0" from="N0" to="N1" priority="-1">
        <lane id="E0_0" index="0" speed="13.89" length="200.00" shape="0.00,-4.80 200.00,-4.80"/>
        <lane id="E0_1" index="1" speed="13.89" length="200.00" shape="0.00,-1.60 200.00,-1.60"/>
    </edge>
    <edge id="E1" from="N1" to="N2" priority="-1">
        <lane id="E1_0" index="0" speed="13.89" length="200.00" shape="200.00,-4.80 400.00,-4.80"/>
        <lane id="E1_1" index="1" speed="13.89" length="200.00" shape="200.00,-1.60 400.00,-1.60"/>
    </edge>
    <edge id="E2" from="N2" to="N3" priority="-1">
        <lane id="E2_0" index="0" speed="13.89" length="200.00" shape="400.00,-4.80 600.00,-4.80"/>
        <lane id="E2_1" index="1" speed="13.89" length="200.00" shape="400.00,-1.60 600.00,-1.60"/>
    </edge>

    <junction id="N0" type="dead_end" x="0.00" y="0.00" incLanes="" intLanes="" shape="0.00,0.00 0.00,-6.40"/>
    <junction id="N1" type="priority" x="200.00" y="0.00" incLanes="E0_0 E0_1" intLanes=":N1_0_0 :N1_0_1" shape="200.00,0.00 200.00,-6.40 200.00,0.00">
        <request index="0" response="00" foes="00" cont="0"/>
        <request index="1" response="00" foes="00" cont="0"/>
    </junction>
    <junction id="N2" type="priority" x="400.00" y="0.00" incLanes="E1_0 E1_1" intLanes=":N2_0_0 :N2_0_1" shape="400.00,0.00 400.00,-6.40 400.00,0.00">
        <request index="0" response="00" foes="00" cont="0"/>
        <request index="1" response="00" foes="00" cont="0"/>
    </junction>
    <junction id="N3" type="dead_end" x="600.00" y="0.00" incLanes="E2_0 E2_1" intLanes="" shape="600.00,-6.40 600.00,0.00"/>

    <connection from="E0" to="E1" fromLane="0" toLane="0" via=":N1_0_0" dir="s" state="M"/>
    <connection from="E0" to="E1" fromLane="1" toLane="1" via=":N1_0_1" dir="s" state="M"/>
    <connection from="E1" to="E2" fromLane="1" toLane="0" via=":N2_0_0" dir="s" state="M"/>
    <connection from="E1" to="E2" fromLane="1" toLane="1" via=":N2_0_1" dir="s" state="M"/>

    <connection from=":N1_0" to="E1" fromLane="0" toLane="0" dir="s" state="M"/>
    <connection from=":N1_0" to="E1" fromLane="1" toLane="1" dir="s" state="M"/>
    <connection from=":N2_0" to="E2" fromLane="0" toLane="0" dir="s" state="M"/>
    <connection from=":N2_0" to="E2" fromLane="1" toLane="1" dir="s" state="M"/>

</net>
