<?xml version="1.0" encoding="UTF-8"?>
<!-- C1-i behavioral fixture config: mirrors scenarios/01-single-free-flow/config.sumocfg (same
     phase-1 settings otherwise: action-step-length=1, ballistic off, teleport off; except this
     fixture's whole POINT is sigma>0, which CLAUDE.md's phase-1 determinism section excludes
     from the exact-parity ladder; see rou.rou.xml's header comment). No golden is regenerated
     against this config; it exists only so Engine.LoadScenario has a config to read
     step-length/action-step-length/ballistic from. seed=42 here is the sumocfg's own declared
     value (ScenarioConfig.Seed) but is NOT what drives the per-entity dawdle RNG in these
     tests; tests set Engine.Seed explicitly before LoadScenario (see Engine.Seed's own comment
     for why). -->
<configuration xmlns:xsi="http://www.w3.org/2001/XMLSchema-instance" xsi:noNamespaceSchemaLocation="http://sumo.dlr.de/xsd/sumoConfiguration.xsd">
    <input>
        <net-file value="net.net.xml"/>
        <route-files value="rou.rou.xml"/>
    </input>
    <time>
        <begin value="0"/>
        <end value="80"/>
        <step-length value="1"/>
    </time>
    <processing>
        <step-method.ballistic value="false"/>
        <time-to-teleport value="-1"/>
        <default.action-step-length value="1"/>
        <default.speeddev value="0"/>
    </processing>
    <random_number>
        <seed value="42"/>
    </random_number>
</configuration>
