sumo_version=1.20.0
sumo_version_reported=Eclipse SUMO sumo Version 1.20.0
generated_utc=2026-07-17T10:14:46Z
command=sumo -c config.sumocfg --fcd-output golden.fcd.xml --fcd-output.acceleration --precision 6 --save-state.times 1 --save-state.files golden.state.xml --no-step-log true
state_time=1
# input file hashes (sha256):
input=net.net.xml sha256=eeed7da7d588c1be53557d7c963aa71fea8c6d97493f9412ce8742af5b399847
input=rou.rou.xml sha256=5b930836f1b6c691472072cf5806d0d203f083adf8076168712571dfc9b9a820
input=config.sumocfg sha256=2813a160c1116818b6f736431fa4df9ff04b0e540fdd75e2013380e276c82a44
