<edges>
    <edge id="e0" from="n0" to="n1" numLanes="1" speed="55.56" allow="rail"/>
</edges>
