<configuration>
  <input>
    <net-file value="net.net.xml"/>
    <route-files value="rou.rou.xml"/>
  </input>
  <time><begin value="0"/><end value="45"/></time>
  <processing>
    <default.action-step-length value="1"/>
    <step-length value="1"/>
    <time-to-teleport value="-1"/>
  </processing>
  <random_number><seed value="42"/></random_number>
</configuration>
