<?xml version="1.0" encoding="UTF-8"?>
<routes xmlns:xsi="http://www.w3.org/2001/XMLSchema-instance" xsi:noNamespaceSchemaLocation="http://sumo.dlr.de/xsd/routes_file.xsd">
    <vType id="rail0" vClass="rail" carFollowModel="Krauss"/>
    <route id="r0" edges="e0"/>
    <vehicle id="train0" type="rail0" route="r0" depart="0" departSpeed="0" departPos="0" departLane="0"/>
</routes>
